!-Generator IDFEditor 1.49
!-Option SortedOrder

!-NOTE: All comments with '!-' are ignored by the IDFEditor and are generated automatically.
!-      Use '!' comments if they need to be retained when using the IDFEditor.


!-   ===========  ALL OBJECTS IN CLASS: VERSION ===========

Version,
    8.7;                     !- Version Identifier


!-   ===========  ALL OBJECTS IN CLASS: SIMULATIONCONTROL ===========

SimulationControl,
    Yes,                     !- Do Zone Sizing Calculation
    Yes,                     !- Do System Sizing Calculation
    No,                      !- Do Plant Sizing Calculation
    No,                      !- Run Simulation for Sizing Periods
    Yes;                     !- Run Simulation for Weather File Run Periods


!-   ===========  ALL OBJECTS IN CLASS: BUILDING ===========

Building,
    NONE,                    !- Name
    0,                       !- North Axis {deg}
    Suburbs,                 !- Terrain
    3.9999999E-02,           !- Loads Convergence Tolerance Value
    0.4000000,               !- Temperature Convergence Tolerance Value {deltaC}
    FullInteriorAndExterior, !- Solar Distribution
    25,                      !- Maximum Number of Warmup Days
    6;                       !- Minimum Number of Warmup Days


!-   ===========  ALL OBJECTS IN CLASS: SURFACECONVECTIONALGORITHM:INSIDE ===========

SurfaceConvectionAlgorithm:Inside,
    TARP;                    !- Algorithm


!-   ===========  ALL OBJECTS IN CLASS: SURFACECONVECTIONALGORITHM:OUTSIDE ===========

SurfaceConvectionAlgorithm:Outside,
    DOE-2;                   !- Algorithm


!-   ===========  ALL OBJECTS IN CLASS: HEATBALANCEALGORITHM ===========

HeatBalanceAlgorithm,
    ConductionTransferFunction;  !- Algorithm


!-   ===========  ALL OBJECTS IN CLASS: TIMESTEP ===========

Timestep,
    60;                      !- Number of Timesteps per Hour


!-   ===========  ALL OBJECTS IN CLASS: SITE:LOCATION ===========

Site:Location,
    BANGKOK,                 !- Name
    13.92,                   !- Latitude {deg}
    100.6,                   !- Longitude {deg}
    7,                       !- Time Zone {hr}
    12;                      !- Elevation {m}


!-   ===========  ALL OBJECTS IN CLASS: SIZINGPERIOD:DESIGNDAY ===========

SizingPeriod:DesignDay,
    BANGKOK Ann Clg .4% Condns DB=>MWB,  !- Name
    4,                       !- Month
    21,                      !- Day of Month
    SummerDesignDay,         !- Day Type
    37.2,                    !- Maximum Dry-Bulb Temperature {C}
    9.2,                     !- Daily Dry-Bulb Temperature Range {deltaC}
    DefaultMultipliers,      !- Dry-Bulb Temperature Range Modifier Type
    ,                        !- Dry-Bulb Temperature Range Modifier Day Schedule Name
    Wetbulb,                 !- Humidity Condition Type
    26.7,                    !- Wetbulb or DewPoint at Maximum Dry-Bulb {C}
    ,                        !- Humidity Condition Day Schedule Name
    ,                        !- Humidity Ratio at Maximum Dry-Bulb {kgWater/kgDryAir}
    ,                        !- Enthalpy at Maximum Dry-Bulb {J/kg}
    ,                        !- Daily Wet-Bulb Temperature Range {deltaC}
    101181,                  !- Barometric Pressure {Pa}
    4.1,                     !- Wind Speed {m/s}
    180,                     !- Wind Direction {deg}
    No,                      !- Rain Indicator
    No,                      !- Snow Indicator
    No,                      !- Daylight Saving Time Indicator
    ASHRAETau,               !- Solar Model Indicator
    ,                        !- Beam Solar Day Schedule Name
    ,                        !- Diffuse Solar Day Schedule Name
    0.7,                     !- ASHRAE Clear Sky Optical Depth for Beam Irradiance (taub) {dimensionless}
    1.538;                   !- ASHRAE Clear Sky Optical Depth for Diffuse Irradiance (taud) {dimensionless}

SizingPeriod:DesignDay,
    BANGKOK Ann Clg .4% Condns DP=>MDB,  !- Name
    4,                       !- Month
    21,                      !- Day of Month
    SummerDesignDay,         !- Day Type
    32.1,                    !- Maximum Dry-Bulb Temperature {C}
    9.2,                     !- Daily Dry-Bulb Temperature Range {deltaC}
    DefaultMultipliers,      !- Dry-Bulb Temperature Range Modifier Type
    ,                        !- Dry-Bulb Temperature Range Modifier Day Schedule Name
    Dewpoint,                !- Humidity Condition Type
    28.7,                    !- Wetbulb or DewPoint at Maximum Dry-Bulb {C}
    ,                        !- Humidity Condition Day Schedule Name
    ,                        !- Humidity Ratio at Maximum Dry-Bulb {kgWater/kgDryAir}
    ,                        !- Enthalpy at Maximum Dry-Bulb {J/kg}
    ,                        !- Daily Wet-Bulb Temperature Range {deltaC}
    101181,                  !- Barometric Pressure {Pa}
    4.1,                     !- Wind Speed {m/s}
    180,                     !- Wind Direction {deg}
    No,                      !- Rain Indicator
    No,                      !- Snow Indicator
    No,                      !- Daylight Saving Time Indicator
    ASHRAETau,               !- Solar Model Indicator
    ,                        !- Beam Solar Day Schedule Name
    ,                        !- Diffuse Solar Day Schedule Name
    0.7,                     !- ASHRAE Clear Sky Optical Depth for Beam Irradiance (taub) {dimensionless}
    1.538;                   !- ASHRAE Clear Sky Optical Depth for Diffuse Irradiance (taud) {dimensionless}

SizingPeriod:DesignDay,
    BANGKOK Ann Clg .4% Condns Enth=>MDB,  !- Name
    4,                       !- Month
    21,                      !- Day of Month
    SummerDesignDay,         !- Day Type
    34,                      !- Maximum Dry-Bulb Temperature {C}
    9.2,                     !- Daily Dry-Bulb Temperature Range {deltaC}
    DefaultMultipliers,      !- Dry-Bulb Temperature Range Modifier Type
    ,                        !- Dry-Bulb Temperature Range Modifier Day Schedule Name
    Enthalpy,                !- Humidity Condition Type
    ,                        !- Wetbulb or DewPoint at Maximum Dry-Bulb {C}
    ,                        !- Humidity Condition Day Schedule Name
    ,                        !- Humidity Ratio at Maximum Dry-Bulb {kgWater/kgDryAir}
    98000,                   !- Enthalpy at Maximum Dry-Bulb {J/kg}
    ,                        !- Daily Wet-Bulb Temperature Range {deltaC}
    101181,                  !- Barometric Pressure {Pa}
    4.1,                     !- Wind Speed {m/s}
    180,                     !- Wind Direction {deg}
    No,                      !- Rain Indicator
    No,                      !- Snow Indicator
    No,                      !- Daylight Saving Time Indicator
    ASHRAETau,               !- Solar Model Indicator
    ,                        !- Beam Solar Day Schedule Name
    ,                        !- Diffuse Solar Day Schedule Name
    0.7,                     !- ASHRAE Clear Sky Optical Depth for Beam Irradiance (taub) {dimensionless}
    1.538;                   !- ASHRAE Clear Sky Optical Depth for Diffuse Irradiance (taud) {dimensionless}

SizingPeriod:DesignDay,
    BANGKOK Ann Clg .4% Condns WB=>MDB,  !- Name
    4,                       !- Month
    21,                      !- Day of Month
    SummerDesignDay,         !- Day Type
    34.2,                    !- Maximum Dry-Bulb Temperature {C}
    9.2,                     !- Daily Dry-Bulb Temperature Range {deltaC}
    DefaultMultipliers,      !- Dry-Bulb Temperature Range Modifier Type
    ,                        !- Dry-Bulb Temperature Range Modifier Day Schedule Name
    Wetbulb,                 !- Humidity Condition Type
    29.6,                    !- Wetbulb or DewPoint at Maximum Dry-Bulb {C}
    ,                        !- Humidity Condition Day Schedule Name
    ,                        !- Humidity Ratio at Maximum Dry-Bulb {kgWater/kgDryAir}
    ,                        !- Enthalpy at Maximum Dry-Bulb {J/kg}
    ,                        !- Daily Wet-Bulb Temperature Range {deltaC}
    101181,                  !- Barometric Pressure {Pa}
    4.1,                     !- Wind Speed {m/s}
    180,                     !- Wind Direction {deg}
    No,                      !- Rain Indicator
    No,                      !- Snow Indicator
    No,                      !- Daylight Saving Time Indicator
    ASHRAETau,               !- Solar Model Indicator
    ,                        !- Beam Solar Day Schedule Name
    ,                        !- Diffuse Solar Day Schedule Name
    0.7,                     !- ASHRAE Clear Sky Optical Depth for Beam Irradiance (taub) {dimensionless}
    1.538;                   !- ASHRAE Clear Sky Optical Depth for Diffuse Irradiance (taud) {dimensionless}

SizingPeriod:DesignDay,
    BANGKOK Ann Htg 99.6% Condns DB,  !- Name
    12,                      !- Month
    21,                      !- Day of Month
    WinterDesignDay,         !- Day Type
    19,                      !- Maximum Dry-Bulb Temperature {C}
    0,                       !- Daily Dry-Bulb Temperature Range {deltaC}
    DefaultMultipliers,      !- Dry-Bulb Temperature Range Modifier Type
    ,                        !- Dry-Bulb Temperature Range Modifier Day Schedule Name
    Wetbulb,                 !- Humidity Condition Type
    19,                      !- Wetbulb or DewPoint at Maximum Dry-Bulb {C}
    ,                        !- Humidity Condition Day Schedule Name
    ,                        !- Humidity Ratio at Maximum Dry-Bulb {kgWater/kgDryAir}
    ,                        !- Enthalpy at Maximum Dry-Bulb {J/kg}
    ,                        !- Daily Wet-Bulb Temperature Range {deltaC}
    101181,                  !- Barometric Pressure {Pa}
    1.6,                     !- Wind Speed {m/s}
    350,                     !- Wind Direction {deg}
    No,                      !- Rain Indicator
    No,                      !- Snow Indicator
    No,                      !- Daylight Saving Time Indicator
    ASHRAEClearSky,          !- Solar Model Indicator
    ,                        !- Beam Solar Day Schedule Name
    ,                        !- Diffuse Solar Day Schedule Name
    ,                        !- ASHRAE Clear Sky Optical Depth for Beam Irradiance (taub) {dimensionless}
    ,                        !- ASHRAE Clear Sky Optical Depth for Diffuse Irradiance (taud) {dimensionless}
    0;                       !- Sky Clearness

SizingPeriod:DesignDay,
    BANGKOK Ann Htg Wind 99.6% Condns WS=>MCDB,  !- Name
    12,                      !- Month
    21,                      !- Day of Month
    WinterDesignDay,         !- Day Type
    27.5,                    !- Maximum Dry-Bulb Temperature {C}
    0,                       !- Daily Dry-Bulb Temperature Range {deltaC}
    DefaultMultipliers,      !- Dry-Bulb Temperature Range Modifier Type
    ,                        !- Dry-Bulb Temperature Range Modifier Day Schedule Name
    Wetbulb,                 !- Humidity Condition Type
    27.5,                    !- Wetbulb or DewPoint at Maximum Dry-Bulb {C}
    ,                        !- Humidity Condition Day Schedule Name
    ,                        !- Humidity Ratio at Maximum Dry-Bulb {kgWater/kgDryAir}
    ,                        !- Enthalpy at Maximum Dry-Bulb {J/kg}
    ,                        !- Daily Wet-Bulb Temperature Range {deltaC}
    101181,                  !- Barometric Pressure {Pa}
    6.4,                     !- Wind Speed {m/s}
    350,                     !- Wind Direction {deg}
    No,                      !- Rain Indicator
    No,                      !- Snow Indicator
    No,                      !- Daylight Saving Time Indicator
    ASHRAEClearSky,          !- Solar Model Indicator
    ,                        !- Beam Solar Day Schedule Name
    ,                        !- Diffuse Solar Day Schedule Name
    ,                        !- ASHRAE Clear Sky Optical Depth for Beam Irradiance (taub) {dimensionless}
    ,                        !- ASHRAE Clear Sky Optical Depth for Diffuse Irradiance (taud) {dimensionless}
    0;                       !- Sky Clearness

SizingPeriod:DesignDay,
    BANGKOK Ann Hum_n 99.6% Condns DP=>MCDB,  !- Name
    12,                      !- Month
    21,                      !- Day of Month
    WinterDesignDay,         !- Day Type
    25.8,                    !- Maximum Dry-Bulb Temperature {C}
    0,                       !- Daily Dry-Bulb Temperature Range {deltaC}
    DefaultMultipliers,      !- Dry-Bulb Temperature Range Modifier Type
    ,                        !- Dry-Bulb Temperature Range Modifier Day Schedule Name
    Dewpoint,                !- Humidity Condition Type
    11.2,                    !- Wetbulb or DewPoint at Maximum Dry-Bulb {C}
    ,                        !- Humidity Condition Day Schedule Name
    ,                        !- Humidity Ratio at Maximum Dry-Bulb {kgWater/kgDryAir}
    ,                        !- Enthalpy at Maximum Dry-Bulb {J/kg}
    ,                        !- Daily Wet-Bulb Temperature Range {deltaC}
    101181,                  !- Barometric Pressure {Pa}
    1.6,                     !- Wind Speed {m/s}
    350,                     !- Wind Direction {deg}
    No,                      !- Rain Indicator
    No,                      !- Snow Indicator
    No,                      !- Daylight Saving Time Indicator
    ASHRAEClearSky,          !- Solar Model Indicator
    ,                        !- Beam Solar Day Schedule Name
    ,                        !- Diffuse Solar Day Schedule Name
    ,                        !- ASHRAE Clear Sky Optical Depth for Beam Irradiance (taub) {dimensionless}
    ,                        !- ASHRAE Clear Sky Optical Depth for Diffuse Irradiance (taud) {dimensionless}
    0;                       !- Sky Clearness


!-   ===========  ALL OBJECTS IN CLASS: RUNPERIOD ===========

RunPeriod,
    July22,                  !- Name
    7,                       !- Begin Month
    22,                      !- Begin Day of Month
    7,                       !- End Month
    26,                      !- End Day of Month
    Monday,                  !- Day of Week for Start Day
    Yes,                     !- Use Weather File Holidays and Special Days
    Yes,                     !- Use Weather File Daylight Saving Period
    No,                      !- Apply Weekend Holiday Rule
    Yes,                     !- Use Weather File Rain Indicators
    Yes,                     !- Use Weather File Snow Indicators
    1,                       !- Number of Times Runperiod to be Repeated
    Yes,                     !- Increment Day of Week on repeat
    2019;                    !- Start Year


!-   ===========  ALL OBJECTS IN CLASS: SITE:GROUNDTEMPERATURE:BUILDINGSURFACE ===========

Site:GroundTemperature:BuildingSurface,
    20.03,                   !- January Ground Temperature {C}
    20.03,                   !- February Ground Temperature {C}
    20.13,                   !- March Ground Temperature {C}
    20.30,                   !- April Ground Temperature {C}
    20.43,                   !- May Ground Temperature {C}
    20.52,                   !- June Ground Temperature {C}
    20.62,                   !- July Ground Temperature {C}
    20.77,                   !- August Ground Temperature {C}
    20.78,                   !- September Ground Temperature {C}
    20.55,                   !- October Ground Temperature {C}
    20.44,                   !- November Ground Temperature {C}
    20.20;                   !- December Ground Temperature {C}


!-   ===========  ALL OBJECTS IN CLASS: SCHEDULETYPELIMITS ===========

ScheduleTypeLimits,
    Any Number;              !- Name

ScheduleTypeLimits,
    Fraction,                !- Name
    0.0,                     !- Lower Limit Value
    1.0,                     !- Upper Limit Value
    CONTINUOUS;              !- Numeric Type

ScheduleTypeLimits,
    Temperature,             !- Name
    -60,                     !- Lower Limit Value
    200,                     !- Upper Limit Value
    CONTINUOUS,              !- Numeric Type
    Temperature;             !- Unit Type

ScheduleTypeLimits,
    Control Type,            !- Name
    0,                       !- Lower Limit Value
    4,                       !- Upper Limit Value
    DISCRETE;                !- Numeric Type

ScheduleTypeLimits,
    On/Off,                  !- Name
    0,                       !- Lower Limit Value
    1,                       !- Upper Limit Value
    DISCRETE;                !- Numeric Type


!-   ===========  ALL OBJECTS IN CLASS: SCHEDULE:COMPACT ===========

Schedule:Compact,
    Activity Sch,            !- Name
    Any Number,              !- Schedule Type Limits Name
    Through: 12/31,          !- Field 1
    For: Alldays,            !- Field 2
    Until: 24:00,            !- Field 3
    131.80;                  !- Field 4

Schedule:Compact,
    Work Eff Sch,            !- Name
    Any Number,              !- Schedule Type Limits Name
    Through: 12/31,          !- Field 1
    For: Alldays,            !- Field 2
    Until: 24:00,            !- Field 3
    0.00;                    !- Field 4

Schedule:Compact,
    Clothing Sch,            !- Name
    Any Number,              !- Schedule Type Limits Name
    Through: 12/31,          !- Field 1
    For: Alldays,            !- Field 2
    Until: 24:00,            !- Field 3
    1.00;                    !- Field 4

Schedule:Compact,
    Air Velo Sch,            !- Name
    Any Number,              !- Schedule Type Limits Name
    Through: 12/31,          !- Field 1
    For: Alldays,            !- Field 2
    Until: 24:00,            !- Field 3
    0.137;                   !- Field 4

Schedule:Compact,
    Office Occupancy,        !- Name
    ANY NUMBER,              !- Schedule Type Limits Name
    Through: 12/31,          !- Field 1
    For: Weekdays,           !- Field 2
    Until: 6:00,             !- Field 3
    0.00,                    !- Field 4
    Until: 7:00,             !- Field 5
    0.10,                    !- Field 6
    Until: 8:00,             !- Field 7
    0.50,                    !- Field 8
    Until: 12:00,            !- Field 9
    1.00,                    !- Field 10
    Until: 13:00,            !- Field 11
    0.50,                    !- Field 12
    Until: 16:00,            !- Field 13
    1.00,                    !- Field 14
    Until: 17:00,            !- Field 15
    0.50,                    !- Field 16
    Until: 18:00,            !- Field 17
    0.10,                    !- Field 18
    Until: 24:00,            !- Field 19
    0.00,                    !- Field 20
    For: Weekends Holidays CustomDay1 CustomDay2,  !- Field 21
    Until: 24:00,            !- Field 22
    0.00,                    !- Field 23
    For: SummerDesignDay,    !- Field 24
    Until: 24:00,            !- Field 25
    1.00,                    !- Field 26
    For: WinterDesignDay,    !- Field 27
    Until: 24:00,            !- Field 28
    5.00E-002;               !- Field 29

Schedule:Compact,
    Intermittent,            !- Name
    ANY NUMBER,              !- Schedule Type Limits Name
    Through: 7/21,           !- Field 1
    For: Alldays,            !- Field 2
    Until: 24:00,            !- Field 3
    0.00,                    !- Field 4
    Through: 7/22,           !- Field 5
    For: Monday,             !- Field 6
    Until: 8:00,             !- Field 7
    0.03,                    !- Field 8
    Until: 8:10,             !- Field 9
    0.40,                    !- Field 10
    Until: 8:20,             !- Field 11
    0.30,                    !- Field 12
    Until: 8:30,             !- Field 13
    0.50,                    !- Field 14
    Until: 8:40,             !- Field 15
    0.40,                    !- Field 16
    Until: 8:50,             !- Field 17
    0.30,                    !- Field 18
    Until: 9:00,             !- Field 19
    0.40,                    !- Field 20
    Until: 9:10,             !- Field 21
    0.30,                    !- Field 22
    Until: 9:20,             !- Field 23
    0.70,                    !- Field 24
    Until: 9:30,             !- Field 25
    0.80,                    !- Field 26
    Until: 9:40,             !- Field 27
    0.60,                    !- Field 28
    Until: 9:50,             !- Field 29
    0.60,                    !- Field 30
    Until: 10:00,            !- Field 31
    0.80,                    !- Field 32
    Until: 10:10,            !- Field 33
    0.75,                    !- Field 34
    Until: 10:20,            !- Field 35
    0.650,                   !- Field 36
    Until: 10:30,            !- Field 37
    0.80,                    !- Field 38
    Until: 10:40,            !- Field 39
    0.70,                    !- Field 40
    Until: 10:50,            !- Field 41
    0.60,                    !- Field 42
    Until: 11:00,            !- Field 43
    0.550,                   !- Field 44
    Until: 11:10,            !- Field 45
    0.80,                    !- Field 46
    Until: 11:20,            !- Field 47
    0.450,                   !- Field 48
    Until: 11:30,            !- Field 49
    0.50,                    !- Field 50
    Until: 11:40,            !- Field 51
    0.60,                    !- Field 52
    Until: 11:50,            !- Field 53
    0.580,                   !- Field 54
    Until: 12:00,            !- Field 55
    0.650,                   !- Field 56
    Until: 12:10,            !- Field 57
    0.200,                   !- Field 58
    Until: 12:20,            !- Field 59
    0.200,                   !- Field 60
    Until: 12:30,            !- Field 61
    0.200,                   !- Field 62
    Until: 12:40,            !- Field 63
    0.200,                   !- Field 64
    Until: 12:50,            !- Field 65
    0.200,                   !- Field 66
    Until: 13:00,            !- Field 67
    0.30,                    !- Field 68
    Until: 13:10,            !- Field 69
    0.80,                    !- Field 70
    Until: 13:20,            !- Field 71
    0.550,                   !- Field 72
    Until: 13:30,            !- Field 73
    0.650,                   !- Field 74
    Until: 13:40,            !- Field 75
    0.250,                   !- Field 76
    Until: 13:50,            !- Field 77
    0.80,                    !- Field 78
    Until: 14:00,            !- Field 79
    0.260,                   !- Field 80
    Until: 14:10,            !- Field 81
    0.65,                    !- Field 82
    Until: 14:20,            !- Field 83
    0.2450,                  !- Field 84
    Until: 14:30,            !- Field 85
    0.550,                   !- Field 86
    Until: 14:40,            !- Field 87
    0.50,                    !- Field 88
    Until: 14:50,            !- Field 89
    0.65,                    !- Field 90
    Until: 15:00,            !- Field 91
    0.60,                    !- Field 92
    Until: 15:10,            !- Field 93
    0.450,                   !- Field 94
    Until: 15:20,            !- Field 95
    0.450,                   !- Field 96
    Until: 15:30,            !- Field 97
    0.50,                    !- Field 98
    Until: 15:40,            !- Field 99
    0.550,                   !- Field 100
    Until: 15:50,            !- Field 101
    0.60,                    !- Field 102
    Until: 16:00,            !- Field 103
    0.660,                   !- Field 104
    Until: 16:10,            !- Field 105
    0.550,                   !- Field 106
    Until: 16:20,            !- Field 107
    0.50,                    !- Field 108
    Until: 16:30,            !- Field 109
    0.70,                    !- Field 110
    Until: 16:40,            !- Field 111
    0.20,                    !- Field 112
    Until: 16:50,            !- Field 113
    0.20,                    !- Field 114
    Until: 17:00,            !- Field 115
    0.20,                    !- Field 116
    Until: 17:10,            !- Field 117
    0.20,                    !- Field 118
    Until: 17:20,            !- Field 119
    0.40,                    !- Field 120
    Until: 17:30,            !- Field 121
    0.0900,                  !- Field 122
    Until: 17:40,            !- Field 123
    0.09000,                 !- Field 124
    Until: 17:50,            !- Field 125
    0.09000,                 !- Field 126
    Until: 18:00,            !- Field 127
    0.09000,                 !- Field 128
    Until: 18:10,            !- Field 129
    0.09000,                 !- Field 130
    Until: 18:20,            !- Field 131
    0.09010,                 !- Field 132
    Until: 18:30,            !- Field 133
    0.09020,                 !- Field 134
    Until: 18:40,            !- Field 135
    0.09010,                 !- Field 136
    Until: 18:50,            !- Field 137
    0.090170,                !- Field 138
    Until: 19:00,            !- Field 139
    0.09020,                 !- Field 140
    Until: 20:00,            !- Field 141
    0.0900,                  !- Field 142
    Until: 20:05,            !- Field 143
    0.120,                   !- Field 144
    Until: 20:10,            !- Field 145
    0.50,                    !- Field 146
    Until: 20:20,            !- Field 147
    0.60,                    !- Field 148
    Until: 20:30,            !- Field 149
    0.50,                    !- Field 150
    Until: 21:00,            !- A153
    0.60,                    !- A154
    Until: 21:30,            !- A155
    0.10,                    !- A156
    Until: 24:00,            !- A157
    0.030,                   !- A158
    Through: 7/23,           !- A159
    For: Tuesday,            !- A160
    Until: 8:00,             !- A161
    0.03,                    !- A162
    Until: 8:10,             !- A163
    0.240,                   !- A164
    Until: 8:20,             !- A165
    0.230,                   !- A166
    Until: 8:30,             !- A167
    0.250,                   !- A168
    Until: 8:40,             !- A169
    0.240,                   !- A170
    Until: 8:50,             !- A171
    0.230,                   !- A172
    Until: 9:00,             !- A173
    0.240,                   !- A174
    Until: 9:10,             !- A175
    0.230,                   !- A176
    Until: 9:20,             !- A177
    0.270,                   !- A178
    Until: 9:30,             !- A179
    0.280,                   !- A180
    Until: 9:40,             !- A181
    0.260,                   !- A182
    Until: 9:50,             !- A183
    0.260,                   !- A184
    Until: 10:00,            !- A185
    0.280,                   !- A186
    Until: 10:10,            !- A187
    0.75,                    !- A188
    Until: 10:20,            !- A189
    0.2650,                  !- A190
    Until: 10:30,            !- A191
    0.280,                   !- A192
    Until: 10:40,            !- A193
    0.270,                   !- A194
    Until: 10:50,            !- A195
    0.260,                   !- A196
    Until: 11:00,            !- A197
    0.2550,                  !- A198
    Until: 11:10,            !- A199
    0.280,                   !- A200
    Until: 11:20,            !- A201
    0.2450,                  !- A202
    Until: 11:30,            !- A203
    0.250,                   !- A204
    Until: 11:40,            !- A205
    0.260,                   !- A206
    Until: 11:50,            !- A207
    0.2580,                  !- A208
    Until: 12:00,            !- A209
    0.2650,                  !- A210
    Until: 12:10,            !- A211
    0.250,                   !- A212
    Until: 12:20,            !- A213
    0.240,                   !- A214
    Until: 12:30,            !- A215
    0.240,                   !- A216
    Until: 12:40,            !- A217
    0.230,                   !- A218
    Until: 12:50,            !- A219
    0.240,                   !- A220
    Until: 13:00,            !- A221
    0.130,                   !- A222
    Until: 13:10,            !- A223
    0.280,                   !- A224
    Until: 13:20,            !- A225
    0.2550,                  !- A226
    Until: 13:30,            !- A227
    0.2650,                  !- A228
    Until: 13:40,            !- A229
    0.2650,                  !- A230
    Until: 13:50,            !- A231
    0.280,                   !- A232
    Until: 14:00,            !- A233
    0.260,                   !- A234
    Until: 14:10,            !- A235
    0.265,                   !- A236
    Until: 14:20,            !- A237
    0.2450,                  !- A238
    Until: 14:30,            !- A239
    0.2550,                  !- A240
    Until: 14:40,            !- A241
    0.250,                   !- A242
    Until: 14:50,            !- A243
    0.265,                   !- A244
    Until: 14:55,            !- A245
    0.365,                   !- A246
    Until: 15:00,            !- A247
    0.260,                   !- A248
    Until: 15:10,            !- A249
    0.2450,                  !- A250
    Until: 15:20,            !- A251
    0.2450,                  !- A252
    Until: 15:30,            !- A253
    0.250,                   !- A254
    Until: 15:40,            !- A255
    0.2550,                  !- A256
    Until: 15:50,            !- A257
    0.260,                   !- A258